[General]
network = org.revans.Demo
#random-seed = 13
ned-path = /Applications/MiXiM/base;/Applications/MiXiM/modules;/Applications/MiXiM/examples;/Applications/MiXiM/examples/Mac80211;/Users/stefanofontanelli/revans/ned;
sim-time-limit = 5000s
#bitmap-path = "../../bitmaps"
# tkenv-default-run = 1
#breakpoints-enabled = true
tkenv-default-config = 

# cmdenv-runs-to-execute = 1
cmdenv-event-banners = true
cmdenv-module-messages = true






##############################################################################
#       Parameters for the entire simulation                                 #
##############################################################################

**.numHosts = 1
# uncomment to enable debug messages for all modules
# **.debug = 0
**.coreDebug = true


##############################################################################
#       Parameters for the ConnectionManager                                 #
##############################################################################
**.connectionManager.carrierFrequency = 2.4e+9Hz  # [Hz]

# max transmission power [mW]
**.connectionManager.pMax = 110.11mW  # [mW]
# signal attenuation threshold [dBm]
**.connectionManager.sat = -120dBm  # [dBm]
# path loss coefficient alpha
**.connectionManager.alpha = 4
**.connectionManager.sendDirect = false


##############################################################################
#       Parameters for the Mobility Module                                   #
##############################################################################

# debug switch
#**.mobility.debug = false

# if set to 0 the MN does not move
#**.mobility.speed = 20mps
#**.mobility.updateInterval = 0.5s

# starting position for the hosts "-1" means random staring point
# starting position for the hosts "-1" means random staring point
#**.host[0].mobility.x = -1
#**.host[0].mobility.y = -1

#**.host[1].mobility.x = -1
#**.host[1].mobility.y = -1

##############################################################################
#       Parameters for the Host                                              #
##############################################################################

##############################################################################
#       Parameters for the Application Layer                                 #
##############################################################################

# debug switch
**.appl.debug = false
**.appl.headerLength = 1024bit
**.appl.burstSize = 1

##############################################################################
#       Parameters for the Network Layer                                     #
##############################################################################
**.net.headerLength = 32bit# in bits
**.net.debug = false
**.net.stats = false

##############################################################################
#       Parameters for ARP
##############################################################################

##############################################################################
#       Parameters for the Mac Layer                                         #
##############################################################################

# debug switch
**.mac.headerLength = 272 bit
**.mac.queueLength = 14
**.mac.bitrate = 2E+6bps# in bits/second
**.mac.defaultChannel = 0
**.mac.autoBitrate = false

### values if no fading is modelled, gives at most 1% packet error rate
**.mac.snr2Mbit = 1.46dB  # [dB]
**.mac.snr5Mbit = 2.6dB  # [dB]
**.mac.snr11Mbit = 5.68dB  # [dB]

**.mac.rtsCtsThreshold = 400
**.mac.neighborhoodCacheSize = 30
**.mac.neighborhoodCacheMaxAge = 100s  # [s]

**.mac.txPower = 110.11mW  # [mW]
**.mac.centerFrequency = 2.412e9Hz

##############################################################################
#       Parameters for the Phy                                               #
##############################################################################

**.phy.usePropagationDelay = false
**.phy.thermalNoise = -110dBm  # [dBm]
**.phy.analogueModels = xmldoc("/Users/stefanofontanelli/revans/scenario/sample.ang_cfg/config.xml")
**.phy.decider = xmldoc("/Users/stefanofontanelli/revans/scenario/sample.ang_cfg/config.xml")
**.phy.sensitivity = -119.5dBm  # [dBm]
**.phy.maxTXPower = 110.11mW
**.phy.timeRXToTX = 0s
**.phy.timeRXToSleep = 0s
**.phy.timeTXToRX = 0s
**.phy.timeTXToSleep = 0s
**.phy.timeSleepToRX = 0s
**.phy.timeSleepToTX = 0s
**.phy.initialRadioState = 0

**.phy.headerLength = 192bit
**.phy.useThermalNoise = true
